<edges>
<edge from="n1" to="n2" id="1to2" type="3L45" />
<edge from="n2" to="n3" id="2to3" type="2L15" />
<edge from="n3" to="n4" id="3to4" type="3L30" />
<edge from="n4" to="n5" id="out" type="3L30" />
</edges>